My new file

New line.

New line from master.
