My new file

New line.

New line in a branch.
